/*--------------------------------*- C++ -*----------------------------------*\
  =========                 |
  \\      /  F ield         | OpenFOAM: The Open Source CFD Toolbox
   \\    /   O peration     | Website:  https://openfoam.org
    \\  /    A nd           | Version:  6
     \\/     M anipulation  |
\*---------------------------------------------------------------------------*/
FoamFile
{
    version     2.0;
    format      ascii;
    class       volScalarField;
    object      p;
}
// * * * * * * * * * * * * * * * * * * * * * * * * * * * * * * * * * * * * * //

dimensions      [0 1 0 0 0 0 0];

internalField   uniform 0;

boundaryField
{

    {
        type            patch;
        nFaces          100;
        startFace       5500;
    }
    sides
    {
        type            patch;
        nFaces          400;
        startFace       5600;
    }
    outlet
    {
        type            patch;
        nFaces          100;
        startFace       6000;
    }
    ground
    {
        type            wall;
        inGroups        1(wall);
        nFaces          200;
        startFace       6100;
    }
    top
    {
        type            patch;
        nFaces          200;
        startFace       6300;
    }

}

// ************************************************************************* //
