/*--------------------------------*- C++ -*----------------------------------*\
  =========                 |
  \\      /  F ield         | OpenFOAM: The Open Source CFD Toolbox
   \\    /   O peration     | Website:  https://openfoam.org
    \\  /    A nd           | Version:  6
     \\/     M anipulation  |
\*---------------------------------------------------------------------------*/
FoamFile
{
    version     2.0;
    format      ascii;
    class       polyBoundaryMesh;
    location    "0.005/polyMesh";
    object      boundary;
}
// * * * * * * * * * * * * * * * * * * * * * * * * * * * * * * * * * * * * * //

6
(
    inlet
    {
        type            patch;
        nFaces          0;
        startFace       8038;
    }
    sides
    {
        type            patch;
        nFaces          0;
        startFace       8038;
    }
    outlet
    {
        type            patch;
        nFaces          0;
        startFace       8038;
    }
    ground
    {
        type            wall;
        inGroups        1(wall);
        nFaces          0;
        startFace       8038;
    }
    top
    {
        type            patch;
        nFaces          0;
        startFace       8038;
    }
    potato
    {
        type            wall;
        inGroups        1(wall);
        nFaces          1504;
        startFace       8038;
    }
)

// ************************************************************************* //
