/*--------------------------------*- C++ -*----------------------------------*\
  =========                 |
  \\      /  F ield         | OpenFOAM: The Open Source CFD Toolbox
   \\    /   O peration     | Website:  https://openfoam.org
    \\  /    A nd           | Version:  6
     \\/     M anipulation  |
\*---------------------------------------------------------------------------*/
FoamFile
{
    version     2.0;
    format      ascii;
    class       polyBoundaryMesh;
    location    "constant/polyMesh";
    object      boundary;
}
// * * * * * * * * * * * * * * * * * * * * * * * * * * * * * * * * * * * * * //

5
(
    inlet
    {
        type            patch;
        nFaces          100;
        startFace       2700;
    }
    sides
    {
        type            patch;
        nFaces          200;
        startFace       2800;
    }
    outlet
    {
        type            patch;
        nFaces          100;
        startFace       3000;
    }
    ground
    {
        type            wall;
        inGroups        1(wall);
        nFaces          100;
        startFace       3100;
    }
    top
    {
        type            patch;
        nFaces          100;
        startFace       3200;
    }
)

// ************************************************************************* //
